1
  -OEChem-01162303282D

 31 30  0     1  0  0  0  0  0999 V2000
    2.8660    0.7500    0.0000 O   0  0  0  0  0  0  0  0  0  0  0  0
    2.8660   -2.2500    0.0000 O   0  5  0  0  0  0  0  0  0  0  0  0
    2.0000   -0.7500    0.0000 O   0  0  0  0  0  0  0  0  0  0  0  0
    3.7320    2.2500    0.0000 O   0  0  0  0  0  0  0  0  0  0  0  0
    5.4641    0.2500    0.0000 N   0  3  0  0  0  0  0  0  0  0  0  0
    4.5981    0.7500    0.0000 C   0  0  0  0  0  0  0  0  0  0  0  0
    3.7320    0.2500    0.0000 C   0  0  3  0  0  0  0  0  0  0  0  0
    6.3301   -0.2500    0.0000 C   0  0  0  0  0  0  0  0  0  0  0  0
    5.9641    1.1160    0.0000 C   0  0  0  0  0  0  0  0  0  0  0  0
    4.9641   -0.6160    0.0000 C   0  0  0  0  0  0  0  0  0  0  0  0
    3.7320   -0.7500    0.0000 C   0  0  0  0  0  0  0  0  0  0  0  0
    2.8660   -1.2500    0.0000 C   0  0  0  0  0  0  0  0  0  0  0  0
    2.8660    1.7500    0.0000 C   0  0  0  0  0  0  0  0  0  0  0  0
    2.0000    2.2500    0.0000 C   0  0  0  0  0  0  0  0  0  0  0  0
    4.9966    1.2250    0.0000 H   0  0  0  0  0  0  0  0  0  0  0  0
    4.1996    1.2250    0.0000 H   0  0  0  0  0  0  0  0  0  0  0  0
    3.7320    0.8700    0.0000 H   0  0  0  0  0  0  0  0  0  0  0  0
    6.0201   -0.7869    0.0000 H   0  0  0  0  0  0  0  0  0  0  0  0
    6.8671   -0.5600    0.0000 H   0  0  0  0  0  0  0  0  0  0  0  0
    6.6401    0.2869    0.0000 H   0  0  0  0  0  0  0  0  0  0  0  0
    6.5010    0.8060    0.0000 H   0  0  0  0  0  0  0  0  0  0  0  0
    6.2741    1.6530    0.0000 H   0  0  0  0  0  0  0  0  0  0  0  0
    5.4272    1.4260    0.0000 H   0  0  0  0  0  0  0  0  0  0  0  0
    4.4272   -0.3060    0.0000 H   0  0  0  0  0  0  0  0  0  0  0  0
    4.6541   -1.1530    0.0000 H   0  0  0  0  0  0  0  0  0  0  0  0
    5.5010   -0.9260    0.0000 H   0  0  0  0  0  0  0  0  0  0  0  0
    3.9441   -1.3326    0.0000 H   0  0  0  0  0  0  0  0  0  0  0  0
    4.3426   -0.6423    0.0000 H   0  0  0  0  0  0  0  0  0  0  0  0
    2.3100    2.7869    0.0000 H   0  0  0  0  0  0  0  0  0  0  0  0
    1.4631    2.5600    0.0000 H   0  0  0  0  0  0  0  0  0  0  0  0
    1.6900    1.7131    0.0000 H   0  0  0  0  0  0  0  0  0  0  0  0
  1  7  1  0  0  0  0
  1 13  1  0  0  0  0
  2 12  1  0  0  0  0
  3 12  2  0  0  0  0
  4 13  2  0  0  0  0
  5  6  1  0  0  0  0
  5  8  1  0  0  0  0
  5  9  1  0  0  0  0
  5 10  1  0  0  0  0
  6  7  1  0  0  0  0
  6 15  1  0  0  0  0
  6 16  1  0  0  0  0
  7 11  1  0  0  0  0
  7 17  1  0  0  0  0
  8 18  1  0  0  0  0
  8 19  1  0  0  0  0
  8 20  1  0  0  0  0
  9 21  1  0  0  0  0
  9 22  1  0  0  0  0
  9 23  1  0  0  0  0
 10 24  1  0  0  0  0
 10 25  1  0  0  0  0
 10 26  1  0  0  0  0
 11 12  1  0  0  0  0
 11 27  1  0  0  0  0
 11 28  1  0  0  0  0
 13 14  1  0  0  0  0
 14 29  1  0  0  0  0
 14 30  1  0  0  0  0
 14 31  1  0  0  0  0
M  CHG  2   2  -1   5   1
M  END
> <PUBCHEM_COMPOUND_CID>
1

> <PUBCHEM_COMPOUND_CANONICALIZED>
1

> <PUBCHEM_CACTVS_COMPLEXITY>
214

> <PUBCHEM_CACTVS_HBOND_ACCEPTOR>
4

> <PUBCHEM_CACTVS_HBOND_DONOR>
0

> <PUBCHEM_CACTVS_ROTATABLE_BOND>
5

> <PUBCHEM_CACTVS_SUBSKEYS>
AAADceByOAAAAAAAAAAAAAAAAAAAAAAAAAAAAAAAAAAAAAAAAAAAHgAAAAAACBThgAYCCAMABAAIAACQCAAAAAAAAAAAAAEIAAACABQAgAAHAAAFIAAQAAAkAAAAAAAAAAAAAAAAAAAAAAAAAAAAAAAAAA==

> <PUBCHEM_IUPAC_OPENEYE_NAME>
3-acetoxy-4-(trimethylammonio)butanoate

> <PUBCHEM_IUPAC_CAS_NAME>
3-acetyloxy-4-(trimethylammonio)butanoate

> <PUBCHEM_IUPAC_NAME_MARKUP>
3-acetyloxy-4-(trimethylazaniumyl)butanoate

> <PUBCHEM_IUPAC_NAME>
3-acetyloxy-4-(trimethylazaniumyl)butanoate

> <PUBCHEM_IUPAC_SYSTEMATIC_NAME>
3-acetyloxy-4-(trimethylazaniumyl)butanoate

> <PUBCHEM_IUPAC_TRADITIONAL_NAME>
3-acetoxy-4-(trimethylammonio)butyrate

> <PUBCHEM_IUPAC_INCHI>
InChI=1S/C9H17NO4/c1-7(11)14-8(5-9(12)13)6-10(2,3)4/h8H,5-6H2,1-4H3

> <PUBCHEM_IUPAC_INCHIKEY>
RDHQFKQIGNGIED-UHFFFAOYSA-N

> <PUBCHEM_XLOGP3_AA>
0.4

> <PUBCHEM_EXACT_MASS>
203.11575802

> <PUBCHEM_MOLECULAR_FORMULA>
C9H17NO4

> <PUBCHEM_MOLECULAR_WEIGHT>
203.24

> <PUBCHEM_OPENEYE_CAN_SMILES>
CC(=O)OC(CC(=O)[O-])C[N+](C)(C)C

> <PUBCHEM_OPENEYE_ISO_SMILES>
CC(=O)OC(CC(=O)[O-])C[N+](C)(C)C

> <PUBCHEM_CACTVS_TPSA>
66.4

> <PUBCHEM_MONOISOTOPIC_WEIGHT>
203.11575802

> <PUBCHEM_TOTAL_CHARGE>
0

> <PUBCHEM_HEAVY_ATOM_COUNT>
14

> <PUBCHEM_ATOM_DEF_STEREO_COUNT>
0

> <PUBCHEM_ATOM_UDEF_STEREO_COUNT>
1

> <PUBCHEM_BOND_DEF_STEREO_COUNT>
0

> <PUBCHEM_BOND_UDEF_STEREO_COUNT>
0

> <PUBCHEM_ISOTOPIC_ATOM_COUNT>
0

> <PUBCHEM_COMPONENT_COUNT>
1

> <PUBCHEM_CACTVS_TAUTO_COUNT>
1

> <PUBCHEM_COORDINATE_TYPE>
1
5
255

> <PUBCHEM_BONDANNOTATIONS>
7  11  3

$$$$
59475
  -OEChem-01162303312D

 41 41  0     0  0  0  0  0  0999 V2000
    3.7320   -1.5000    0.0000 O   0  0  0  0  0  0  0  0  0  0  0  0
    5.4641   -2.5000    0.0000 O   0  0  0  0  0  0  0  0  0  0  0  0
    6.3301    3.0000    0.0000 N   0  3  0  0  0  0  0  0  0  0  0  0
    6.3301    2.0000    0.0000 N   0  0  0  0  0  0  0  0  0  0  0  0
    6.3301    4.0000    0.0000 C   0  0  0  0  0  0  0  0  0  0  0  0
    7.3301    3.0000    0.0000 C   0  0  0  0  0  0  0  0  0  0  0  0
    5.3301    3.0000    0.0000 C   0  0  0  0  0  0  0  0  0  0  0  0
    5.4641    0.5000    0.0000 C   0  0  0  0  0  0  0  0  0  0  0  0
    5.4641    1.5000    0.0000 C   0  0  0  0  0  0  0  0  0  0  0  0
    4.5981    0.0000    0.0000 C   0  0  0  0  0  0  0  0  0  0  0  0
    4.5981   -1.0000    0.0000 C   0  0  0  0  0  0  0  0  0  0  0  0
    5.4641   -1.5000    0.0000 C   0  0  0  0  0  0  0  0  0  0  0  0
    6.3301    0.0000    0.0000 C   0  0  0  0  0  0  0  0  0  0  0  0
    6.3301   -1.0000    0.0000 C   0  0  0  0  0  0  0  0  0  0  0  0
    2.8660   -1.0000    0.0000 C   0  0  0  0  0  0  0  0  0  0  0  0
    6.3301   -3.0000    0.0000 C   0  0  0  0  0  0  0  0  0  0  0  0
    2.0000   -1.5000    0.0000 C   0  0  0  0  0  0  0  0  0  0  0  0
    6.3301   -4.0000    0.0000 C   0  0  0  0  0  0  0  0  0  0  0  0
    6.9501    4.0000    0.0000 H   0  0  0  0  0  0  0  0  0  0  0  0
    6.3301    4.6200    0.0000 H   0  0  0  0  0  0  0  0  0  0  0  0
    5.7101    4.0000    0.0000 H   0  0  0  0  0  0  0  0  0  0  0  0
    7.3301    2.3800    0.0000 H   0  0  0  0  0  0  0  0  0  0  0  0
    7.9501    3.0000    0.0000 H   0  0  0  0  0  0  0  0  0  0  0  0
    7.3301    3.6200    0.0000 H   0  0  0  0  0  0  0  0  0  0  0  0
    5.3301    3.6200    0.0000 H   0  0  0  0  0  0  0  0  0  0  0  0
    4.7101    3.0000    0.0000 H   0  0  0  0  0  0  0  0  0  0  0  0
    5.3301    2.3800    0.0000 H   0  0  0  0  0  0  0  0  0  0  0  0
    4.9272    1.8100    0.0000 H   0  0  0  0  0  0  0  0  0  0  0  0
    4.0611    0.3100    0.0000 H   0  0  0  0  0  0  0  0  0  0  0  0
    6.8671    0.3100    0.0000 H   0  0  0  0  0  0  0  0  0  0  0  0
    6.8671   -1.3100    0.0000 H   0  0  0  0  0  0  0  0  0  0  0  0
    3.2646   -0.5251    0.0000 H   0  0  0  0  0  0  0  0  0  0  0  0
    2.4675   -0.5251    0.0000 H   0  0  0  0  0  0  0  0  0  0  0  0
    6.9407   -3.1077    0.0000 H   0  0  0  0  0  0  0  0  0  0  0  0
    6.5422   -2.4174    0.0000 H   0  0  0  0  0  0  0  0  0  0  0  0
    1.6900   -0.9631    0.0000 H   0  0  0  0  0  0  0  0  0  0  0  0
    1.4631   -1.8100    0.0000 H   0  0  0  0  0  0  0  0  0  0  0  0
    2.3100   -2.0369    0.0000 H   0  0  0  0  0  0  0  0  0  0  0  0
    5.7101   -4.0000    0.0000 H   0  0  0  0  0  0  0  0  0  0  0  0
    6.3301   -4.6200    0.0000 H   0  0  0  0  0  0  0  0  0  0  0  0
    6.9501   -4.0000    0.0000 H   0  0  0  0  0  0  0  0  0  0  0  0
  1 11  1  0  0  0  0
  1 15  1  0  0  0  0
  2 12  1  0  0  0  0
  2 16  1  0  0  0  0
  3  4  1  0  0  0  0
  3  5  1  0  0  0  0
  3  6  1  0  0  0  0
  3  7  1  0  0  0  0
  4  9  2  3  0  0  0
  5 19  1  0  0  0  0
  5 20  1  0  0  0  0
  5 21  1  0  0  0  0
  6 22  1  0  0  0  0
  6 23  1  0  0  0  0
  6 24  1  0  0  0  0
  7 25  1  0  0  0  0
  7 26  1  0  0  0  0
  7 27  1  0  0  0  0
  8  9  1  0  0  0  0
  8 10  2  0  0  0  0
  8 13  1  0  0  0  0
  9 28  1  0  0  0  0
 10 11  1  0  0  0  0
 10 29  1  0  0  0  0
 11 12  2  0  0  0  0
 12 14  1  0  0  0  0
 13 14  2  0  0  0  0
 13 30  1  0  0  0  0
 14 31  1  0  0  0  0
 15 17  1  0  0  0  0
 15 32  1  0  0  0  0
 15 33  1  0  0  0  0
 16 18  1  0  0  0  0
 16 34  1  0  0  0  0
 16 35  1  0  0  0  0
 17 36  1  0  0  0  0
 17 37  1  0  0  0  0
 17 38  1  0  0  0  0
 18 39  1  0  0  0  0
 18 40  1  0  0  0  0
 18 41  1  0  0  0  0
M  CHG  1   3   1
M  END
> <PUBCHEM_COMPOUND_CID>
59475

> <PUBCHEM_COMPOUND_CANONICALIZED>
1

> <PUBCHEM_CACTVS_COMPLEXITY>
261

> <PUBCHEM_CACTVS_HBOND_ACCEPTOR>
3

> <PUBCHEM_CACTVS_HBOND_DONOR>
0

> <PUBCHEM_CACTVS_ROTATABLE_BOND>
6

> <PUBCHEM_CACTVS_SUBSKEYS>
AAADceBzMAAAAAAAAAAAAAAAAAAAAAAAAAAwAAAAAAAAAAABAAAAHgAIAAAADAThmAYyBoMABACgAjBjAAASCAAgIAAIiAAuiJgNJqKEMRqCOCKkyBEKqAeAwBAOIAABAAAAQABAAAIAAACAAAAAAAAAAA==

> <PUBCHEM_IUPAC_OPENEYE_NAME>
[(3,4-diethoxyphenyl)methyleneamino]-trimethyl-ammonium

> <PUBCHEM_IUPAC_CAS_NAME>
[(3,4-diethoxyphenyl)methylideneamino]-trimethylammonium

> <PUBCHEM_IUPAC_NAME_MARKUP>
[(3,4-diethoxyphenyl)methylideneamino]-trimethylazanium

> <PUBCHEM_IUPAC_NAME>
[(3,4-diethoxyphenyl)methylideneamino]-trimethylazanium

> <PUBCHEM_IUPAC_SYSTEMATIC_NAME>
[(3,4-diethoxyphenyl)methylideneamino]-trimethyl-azanium

> <PUBCHEM_IUPAC_TRADITIONAL_NAME>
[(3,4-diethoxybenzylidene)amino]-trimethyl-ammonium

> <PUBCHEM_IUPAC_INCHI>
InChI=1S/C14H23N2O2/c1-6-17-13-9-8-12(10-14(13)18-7-2)11-15-16(3,4)5/h8-11H,6-7H2,1-5H3/q+1

> <PUBCHEM_IUPAC_INCHIKEY>
NANDXZYTCQTHRT-UHFFFAOYSA-N

> <PUBCHEM_XLOGP3>
2.8

> <PUBCHEM_EXACT_MASS>
251.175952981

> <PUBCHEM_MOLECULAR_FORMULA>
C14H23N2O2+

> <PUBCHEM_MOLECULAR_WEIGHT>
251.34

> <PUBCHEM_OPENEYE_CAN_SMILES>
CCOC1=C(C=C(C=C1)C=N[N+](C)(C)C)OCC

> <PUBCHEM_OPENEYE_ISO_SMILES>
CCOC1=C(C=C(C=C1)C=N[N+](C)(C)C)OCC

> <PUBCHEM_CACTVS_TPSA>
30.8

> <PUBCHEM_MONOISOTOPIC_WEIGHT>
251.175952981

> <PUBCHEM_TOTAL_CHARGE>
1

> <PUBCHEM_HEAVY_ATOM_COUNT>
18

> <PUBCHEM_ATOM_DEF_STEREO_COUNT>
0

> <PUBCHEM_ATOM_UDEF_STEREO_COUNT>
0

> <PUBCHEM_BOND_DEF_STEREO_COUNT>
0

> <PUBCHEM_BOND_UDEF_STEREO_COUNT>
1

> <PUBCHEM_ISOTOPIC_ATOM_COUNT>
0

> <PUBCHEM_COMPONENT_COUNT>
1

> <PUBCHEM_CACTVS_TAUTO_COUNT>
-1

> <PUBCHEM_COORDINATE_TYPE>
1
5
255

> <PUBCHEM_BONDANNOTATIONS>
10  11  8
11  12  8
12  14  8
13  14  8
4  9  1
8  10  8
8  13  8

$$$$
59476
  -OEChem-01162303312D

 35 34  0     0  0  0  0  0  0999 V2000
    7.4040    3.2200    0.0000 Cl  0  5  0  0  0  0  0  0  0  0  0  0
    1.4030    2.0369    0.0000 O   0  0  0  0  0  0  0  0  0  0  0  0
    3.1350    1.0369    0.0000 O   0  0  0  0  0  0  0  0  0  0  0  0
    4.0010    5.5369    0.0000 N   0  3  0  0  0  0  0  0  0  0  0  0
    4.8671    6.0369    0.0000 N   0  0  0  0  0  0  0  0  0  0  0  0
    3.1350    5.0369    0.0000 C   0  0  0  0  0  0  0  0  0  0  0  0
    3.1350    4.0369    0.0000 C   0  0  0  0  0  0  0  0  0  0  0  0
    3.5010    6.4030    0.0000 C   0  0  0  0  0  0  0  0  0  0  0  0
    4.5010    4.6709    0.0000 C   0  0  0  0  0  0  0  0  0  0  0  0
    2.2690    3.5369    0.0000 C   0  0  0  0  0  0  0  0  0  0  0  0
    4.0010    3.5369    0.0000 C   0  0  0  0  0  0  0  0  0  0  0  0
    2.2690    2.5369    0.0000 C   0  0  0  0  0  0  0  0  0  0  0  0
    4.0010    2.5369    0.0000 C   0  0  0  0  0  0  0  0  0  0  0  0
    3.1350    2.0369    0.0000 C   0  0  0  0  0  0  0  0  0  0  0  0
    0.5369    2.5369    0.0000 C   0  0  0  0  0  0  0  0  0  0  0  0
    4.0010    0.5369    0.0000 C   0  0  0  0  0  0  0  0  0  0  0  0
    2.9230    5.6195    0.0000 H   0  0  0  0  0  0  0  0  0  0  0  0
    2.5244    4.9293    0.0000 H   0  0  0  0  0  0  0  0  0  0  0  0
    4.0380    6.7130    0.0000 H   0  0  0  0  0  0  0  0  0  0  0  0
    3.1910    6.9399    0.0000 H   0  0  0  0  0  0  0  0  0  0  0  0
    2.9641    6.0930    0.0000 H   0  0  0  0  0  0  0  0  0  0  0  0
    3.9641    4.3609    0.0000 H   0  0  0  0  0  0  0  0  0  0  0  0
    4.8110    4.1340    0.0000 H   0  0  0  0  0  0  0  0  0  0  0  0
    5.0380    4.9809    0.0000 H   0  0  0  0  0  0  0  0  0  0  0  0
    4.8671    6.6569    0.0000 H   0  0  0  0  0  0  0  0  0  0  0  0
    5.4040    5.7269    0.0000 H   0  0  0  0  0  0  0  0  0  0  0  0
    1.7320    3.8469    0.0000 H   0  0  0  0  0  0  0  0  0  0  0  0
    4.5380    3.8469    0.0000 H   0  0  0  0  0  0  0  0  0  0  0  0
    4.5380    2.2269    0.0000 H   0  0  0  0  0  0  0  0  0  0  0  0
    0.8469    3.0739    0.0000 H   0  0  0  0  0  0  0  0  0  0  0  0
    0.0000    2.8469    0.0000 H   0  0  0  0  0  0  0  0  0  0  0  0
    0.2269    2.0000    0.0000 H   0  0  0  0  0  0  0  0  0  0  0  0
    3.6910    0.0000    0.0000 H   0  0  0  0  0  0  0  0  0  0  0  0
    4.5380    0.2269    0.0000 H   0  0  0  0  0  0  0  0  0  0  0  0
    4.3110    1.0739    0.0000 H   0  0  0  0  0  0  0  0  0  0  0  0
  2 12  1  0  0  0  0
  2 15  1  0  0  0  0
  3 14  1  0  0  0  0
  3 16  1  0  0  0  0
  4  5  1  0  0  0  0
  4  6  1  0  0  0  0
  4  8  1  0  0  0  0
  4  9  1  0  0  0  0
  5 25  1  0  0  0  0
  5 26  1  0  0  0  0
  6  7  1  0  0  0  0
  6 17  1  0  0  0  0
  6 18  1  0  0  0  0
  7 10  2  0  0  0  0
  7 11  1  0  0  0  0
  8 19  1  0  0  0  0
  8 20  1  0  0  0  0
  8 21  1  0  0  0  0
  9 22  1  0  0  0  0
  9 23  1  0  0  0  0
  9 24  1  0  0  0  0
 10 12  1  0  0  0  0
 10 27  1  0  0  0  0
 11 13  2  0  0  0  0
 11 28  1  0  0  0  0
 12 14  2  0  0  0  0
 13 14  1  0  0  0  0
 13 29  1  0  0  0  0
 15 30  1  0  0  0  0
 15 31  1  0  0  0  0
 15 32  1  0  0  0  0
 16 33  1  0  0  0  0
 16 34  1  0  0  0  0
 16 35  1  0  0  0  0
M  CHG  2   1  -1   4   1
M  END
> <PUBCHEM_COMPOUND_CID>
59476

> <PUBCHEM_COMPOUND_CANONICALIZED>
1

> <PUBCHEM_CACTVS_COMPLEXITY>
197

> <PUBCHEM_CACTVS_HBOND_ACCEPTOR>
4

> <PUBCHEM_CACTVS_HBOND_DONOR>
1

> <PUBCHEM_CACTVS_ROTATABLE_BOND>
4

> <PUBCHEM_CACTVS_SUBSKEYS>
AAADceBzMAAEAAAAAAAAAAAAAAAAAAAAAAAwAAAAAAAAAAABAAAAHgAYAAAADATBmAYyBoMCBACAAiBCAACCCAAgIAAYqAAOjIgNJiKEsRuEMCpkwBEKqAew0BIOIAABAAAAQABAAAIAAACAAAAAAAAAAA==

> <PUBCHEM_IUPAC_OPENEYE_NAME>
amino-[(3,4-dimethoxyphenyl)methyl]-dimethyl-ammonium;chloride

> <PUBCHEM_IUPAC_CAS_NAME>
amino-[(3,4-dimethoxyphenyl)methyl]-dimethylammonium;chloride

> <PUBCHEM_IUPAC_NAME_MARKUP>
amino-[(3,4-dimethoxyphenyl)methyl]-dimethylazanium;chloride

> <PUBCHEM_IUPAC_NAME>
amino-[(3,4-dimethoxyphenyl)methyl]-dimethylazanium;chloride

> <PUBCHEM_IUPAC_SYSTEMATIC_NAME>
azanyl-[(3,4-dimethoxyphenyl)methyl]-dimethyl-azanium;chloride

> <PUBCHEM_IUPAC_TRADITIONAL_NAME>
amino-dimethyl-veratryl-ammonium;chloride

> <PUBCHEM_IUPAC_INCHI>
InChI=1S/C11H19N2O2.ClH/c1-13(2,12)8-9-5-6-10(14-3)11(7-9)15-4;/h5-7H,8,12H2,1-4H3;1H/q+1;/p-1

> <PUBCHEM_IUPAC_INCHIKEY>
JCTSSVJSNCTLIT-UHFFFAOYSA-M

> <PUBCHEM_EXACT_MASS>
246.1135055

> <PUBCHEM_MOLECULAR_FORMULA>
C11H19ClN2O2

> <PUBCHEM_MOLECULAR_WEIGHT>
246.73

> <PUBCHEM_OPENEYE_CAN_SMILES>
C[N+](C)(CC1=CC(=C(C=C1)OC)OC)N.[Cl-]

> <PUBCHEM_OPENEYE_ISO_SMILES>
C[N+](C)(CC1=CC(=C(C=C1)OC)OC)N.[Cl-]

> <PUBCHEM_CACTVS_TPSA>
44.5

> <PUBCHEM_MONOISOTOPIC_WEIGHT>
246.1135055

> <PUBCHEM_TOTAL_CHARGE>
0

> <PUBCHEM_HEAVY_ATOM_COUNT>
16

> <PUBCHEM_ATOM_DEF_STEREO_COUNT>
0

> <PUBCHEM_ATOM_UDEF_STEREO_COUNT>
0

> <PUBCHEM_BOND_DEF_STEREO_COUNT>
0

> <PUBCHEM_BOND_UDEF_STEREO_COUNT>
0

> <PUBCHEM_ISOTOPIC_ATOM_COUNT>
0

> <PUBCHEM_COMPONENT_COUNT>
2

> <PUBCHEM_CACTVS_TAUTO_COUNT>
1

> <PUBCHEM_COORDINATE_TYPE>
1
5
255

> <PUBCHEM_BONDANNOTATIONS>
10  12  8
11  13  8
12  14  8
13  14  8
7  10  8
7  11  8

$$$$
59477
  -OEChem-01162303312D

 34 34  0     0  0  0  0  0  0999 V2000
    2.8660   -1.5600    0.0000 O   0  0  0  0  0  0  0  0  0  0  0  0
    4.5981   -2.5600    0.0000 O   0  0  0  0  0  0  0  0  0  0  0  0
    5.4641    1.9400    0.0000 N   0  3  0  0  0  0  0  0  0  0  0  0
    6.3301    2.4400    0.0000 N   0  0  0  0  0  0  0  0  0  0  0  0
    4.5981    1.4400    0.0000 C   0  0  0  0  0  0  0  0  0  0  0  0
    4.5981    0.4400    0.0000 C   0  0  0  0  0  0  0  0  0  0  0  0
    4.9641    2.8060    0.0000 C   0  0  0  0  0  0  0  0  0  0  0  0
    5.9641    1.0740    0.0000 C   0  0  0  0  0  0  0  0  0  0  0  0
    3.7320   -0.0600    0.0000 C   0  0  0  0  0  0  0  0  0  0  0  0
    5.4641   -0.0600    0.0000 C   0  0  0  0  0  0  0  0  0  0  0  0
    3.7320   -1.0600    0.0000 C   0  0  0  0  0  0  0  0  0  0  0  0
    5.4641   -1.0600    0.0000 C   0  0  0  0  0  0  0  0  0  0  0  0
    4.5981   -1.5600    0.0000 C   0  0  0  0  0  0  0  0  0  0  0  0
    2.0000   -1.0600    0.0000 C   0  0  0  0  0  0  0  0  0  0  0  0
    5.4641   -3.0600    0.0000 C   0  0  0  0  0  0  0  0  0  0  0  0
    4.3860    2.0226    0.0000 H   0  0  0  0  0  0  0  0  0  0  0  0
    3.9875    1.3323    0.0000 H   0  0  0  0  0  0  0  0  0  0  0  0
    5.5010    3.1160    0.0000 H   0  0  0  0  0  0  0  0  0  0  0  0
    4.6541    3.3430    0.0000 H   0  0  0  0  0  0  0  0  0  0  0  0
    4.4272    2.4960    0.0000 H   0  0  0  0  0  0  0  0  0  0  0  0
    5.4272    0.7640    0.0000 H   0  0  0  0  0  0  0  0  0  0  0  0
    6.2741    0.5370    0.0000 H   0  0  0  0  0  0  0  0  0  0  0  0
    6.5010    1.3840    0.0000 H   0  0  0  0  0  0  0  0  0  0  0  0
    6.3301    3.0600    0.0000 H   0  0  0  0  0  0  0  0  0  0  0  0
    6.8671    2.1300    0.0000 H   0  0  0  0  0  0  0  0  0  0  0  0
    3.1951    0.2500    0.0000 H   0  0  0  0  0  0  0  0  0  0  0  0
    6.0010    0.2500    0.0000 H   0  0  0  0  0  0  0  0  0  0  0  0
    6.0010   -1.3700    0.0000 H   0  0  0  0  0  0  0  0  0  0  0  0
    2.3100   -0.5231    0.0000 H   0  0  0  0  0  0  0  0  0  0  0  0
    1.4631   -0.7500    0.0000 H   0  0  0  0  0  0  0  0  0  0  0  0
    1.6900   -1.5969    0.0000 H   0  0  0  0  0  0  0  0  0  0  0  0
    5.1541   -3.5969    0.0000 H   0  0  0  0  0  0  0  0  0  0  0  0
    6.0010   -3.3700    0.0000 H   0  0  0  0  0  0  0  0  0  0  0  0
    5.7741   -2.5231    0.0000 H   0  0  0  0  0  0  0  0  0  0  0  0
  1 11  1  0  0  0  0
  1 14  1  0  0  0  0
  2 13  1  0  0  0  0
  2 15  1  0  0  0  0
  3  4  1  0  0  0  0
  3  5  1  0  0  0  0
  3  7  1  0  0  0  0
  3  8  1  0  0  0  0
  4 24  1  0  0  0  0
  4 25  1  0  0  0  0
  5  6  1  0  0  0  0
  5 16  1  0  0  0  0
  5 17  1  0  0  0  0
  6  9  2  0  0  0  0
  6 10  1  0  0  0  0
  7 18  1  0  0  0  0
  7 19  1  0  0  0  0
  7 20  1  0  0  0  0
  8 21  1  0  0  0  0
  8 22  1  0  0  0  0
  8 23  1  0  0  0  0
  9 11  1  0  0  0  0
  9 26  1  0  0  0  0
 10 12  2  0  0  0  0
 10 27  1  0  0  0  0
 11 13  2  0  0  0  0
 12 13  1  0  0  0  0
 12 28  1  0  0  0  0
 14 29  1  0  0  0  0
 14 30  1  0  0  0  0
 14 31  1  0  0  0  0
 15 32  1  0  0  0  0
 15 33  1  0  0  0  0
 15 34  1  0  0  0  0
M  CHG  1   3   1
M  END
> <PUBCHEM_COMPOUND_CID>
59477

> <PUBCHEM_COMPOUND_CANONICALIZED>
1

> <PUBCHEM_CACTVS_COMPLEXITY>
197

> <PUBCHEM_CACTVS_HBOND_ACCEPTOR>
3

> <PUBCHEM_CACTVS_HBOND_DONOR>
1

> <PUBCHEM_CACTVS_ROTATABLE_BOND>
4

> <PUBCHEM_CACTVS_SUBSKEYS>
AAADceBzMAAAAAAAAAAAAAAAAAAAAAAAAAAwAAAAAAAAAAABAAAAHgAYAAAADATBmAYyBoMCBACAAiBCAACCCAAgIAAYqAAOjIgNJiKEsRuEMCpkwBEKqAew0BIOIAABAAAAQABAAAIAAACAAAAAAAAAAA==

> <PUBCHEM_IUPAC_OPENEYE_NAME>
amino-[(3,4-dimethoxyphenyl)methyl]-dimethyl-ammonium

> <PUBCHEM_IUPAC_CAS_NAME>
amino-[(3,4-dimethoxyphenyl)methyl]-dimethylammonium

> <PUBCHEM_IUPAC_NAME_MARKUP>
amino-[(3,4-dimethoxyphenyl)methyl]-dimethylazanium

> <PUBCHEM_IUPAC_NAME>
amino-[(3,4-dimethoxyphenyl)methyl]-dimethylazanium

> <PUBCHEM_IUPAC_SYSTEMATIC_NAME>
azanyl-[(3,4-dimethoxyphenyl)methyl]-dimethyl-azanium

> <PUBCHEM_IUPAC_TRADITIONAL_NAME>
amino-dimethyl-veratryl-ammonium

> <PUBCHEM_IUPAC_INCHI>
InChI=1S/C11H19N2O2/c1-13(2,12)8-9-5-6-10(14-3)11(7-9)15-4/h5-7H,8,12H2,1-4H3/q+1

> <PUBCHEM_IUPAC_INCHIKEY>
NCHBOCSMLIUTNY-UHFFFAOYSA-N

> <PUBCHEM_XLOGP3>
0.6

> <PUBCHEM_EXACT_MASS>
211.144652853

> <PUBCHEM_MOLECULAR_FORMULA>
C11H19N2O2+

> <PUBCHEM_MOLECULAR_WEIGHT>
211.28

> <PUBCHEM_OPENEYE_CAN_SMILES>
C[N+](C)(CC1=CC(=C(C=C1)OC)OC)N

> <PUBCHEM_OPENEYE_ISO_SMILES>
C[N+](C)(CC1=CC(=C(C=C1)OC)OC)N

> <PUBCHEM_CACTVS_TPSA>
44.5

> <PUBCHEM_MONOISOTOPIC_WEIGHT>
211.144652853

> <PUBCHEM_TOTAL_CHARGE>
1

> <PUBCHEM_HEAVY_ATOM_COUNT>
15

> <PUBCHEM_ATOM_DEF_STEREO_COUNT>
0

> <PUBCHEM_ATOM_UDEF_STEREO_COUNT>
0

> <PUBCHEM_BOND_DEF_STEREO_COUNT>
0

> <PUBCHEM_BOND_UDEF_STEREO_COUNT>
0

> <PUBCHEM_ISOTOPIC_ATOM_COUNT>
0

> <PUBCHEM_COMPONENT_COUNT>
1

> <PUBCHEM_CACTVS_TAUTO_COUNT>
1

> <PUBCHEM_COORDINATE_TYPE>
1
5
255

> <PUBCHEM_BONDANNOTATIONS>
10  12  8
11  13  8
12  13  8
6  10  8
6  9  8
9  11  8

$$$$
59478
  -OEChem-01162303312D

 33 32  0     0  0  0  0  0  0999 V2000
    6.5380    3.0115    0.0000 Cl  0  5  0  0  0  0  0  0  0  0  0  0
    3.1350    5.1200    0.0000 N   0  3  0  0  0  0  0  0  0  0  0  0
    4.0010    5.6200    0.0000 N   0  0  0  0  0  0  0  0  0  0  0  0
    2.2690    4.6200    0.0000 C   0  0  0  0  0  0  0  0  0  0  0  0
    2.2690    3.6200    0.0000 C   0  0  0  0  0  0  0  0  0  0  0  0
    2.6350    5.9860    0.0000 C   0  0  0  0  0  0  0  0  0  0  0  0
    3.6350    4.2540    0.0000 C   0  0  0  0  0  0  0  0  0  0  0  0
    1.4030    3.1200    0.0000 C   0  0  0  0  0  0  0  0  0  0  0  0
    3.1350    3.1200    0.0000 C   0  0  0  0  0  0  0  0  0  0  0  0
    1.4030    2.1200    0.0000 C   0  0  0  0  0  0  0  0  0  0  0  0
    2.2690    1.6200    0.0000 C   0  0  0  0  0  0  0  0  0  0  0  0
    3.1350    2.1200    0.0000 C   0  0  0  0  0  0  0  0  0  0  0  0
    0.5369    1.6200    0.0000 C   0  0  0  0  0  0  0  0  0  0  0  0
    2.2690    0.6200    0.0000 C   0  0  0  0  0  0  0  0  0  0  0  0
    2.0569    5.2026    0.0000 H   0  0  0  0  0  0  0  0  0  0  0  0
    1.6584    4.5123    0.0000 H   0  0  0  0  0  0  0  0  0  0  0  0
    3.1720    6.2960    0.0000 H   0  0  0  0  0  0  0  0  0  0  0  0
    2.3250    6.5230    0.0000 H   0  0  0  0  0  0  0  0  0  0  0  0
    2.0981    5.6760    0.0000 H   0  0  0  0  0  0  0  0  0  0  0  0
    3.0981    3.9440    0.0000 H   0  0  0  0  0  0  0  0  0  0  0  0
    3.9450    3.7170    0.0000 H   0  0  0  0  0  0  0  0  0  0  0  0
    4.1720    4.5640    0.0000 H   0  0  0  0  0  0  0  0  0  0  0  0
    4.0010    6.2400    0.0000 H   0  0  0  0  0  0  0  0  0  0  0  0
    4.5380    5.3100    0.0000 H   0  0  0  0  0  0  0  0  0  0  0  0
    0.8660    3.4300    0.0000 H   0  0  0  0  0  0  0  0  0  0  0  0
    3.6720    3.4300    0.0000 H   0  0  0  0  0  0  0  0  0  0  0  0
    3.6720    1.8100    0.0000 H   0  0  0  0  0  0  0  0  0  0  0  0
    0.2269    2.1569    0.0000 H   0  0  0  0  0  0  0  0  0  0  0  0
    0.0000    1.3100    0.0000 H   0  0  0  0  0  0  0  0  0  0  0  0
    0.8469    1.0831    0.0000 H   0  0  0  0  0  0  0  0  0  0  0  0
    1.6490    0.6200    0.0000 H   0  0  0  0  0  0  0  0  0  0  0  0
    2.2690    0.0000    0.0000 H   0  0  0  0  0  0  0  0  0  0  0  0
    2.8890    0.6200    0.0000 H   0  0  0  0  0  0  0  0  0  0  0  0
  2  3  1  0  0  0  0
  2  4  1  0  0  0  0
  2  6  1  0  0  0  0
  2  7  1  0  0  0  0
  3 23  1  0  0  0  0
  3 24  1  0  0  0  0
  4  5  1  0  0  0  0
  4 15  1  0  0  0  0
  4 16  1  0  0  0  0
  5  8  2  0  0  0  0
  5  9  1  0  0  0  0
  6 17  1  0  0  0  0
  6 18  1  0  0  0  0
  6 19  1  0  0  0  0
  7 20  1  0  0  0  0
  7 21  1  0  0  0  0
  7 22  1  0  0  0  0
  8 10  1  0  0  0  0
  8 25  1  0  0  0  0
  9 12  2  0  0  0  0
  9 26  1  0  0  0  0
 10 11  2  0  0  0  0
 10 13  1  0  0  0  0
 11 12  1  0  0  0  0
 11 14  1  0  0  0  0
 12 27  1  0  0  0  0
 13 28  1  0  0  0  0
 13 29  1  0  0  0  0
 13 30  1  0  0  0  0
 14 31  1  0  0  0  0
 14 32  1  0  0  0  0
 14 33  1  0  0  0  0
M  CHG  2   1  -1   2   1
M  END
> <PUBCHEM_COMPOUND_CID>
59478

> <PUBCHEM_COMPOUND_CANONICALIZED>
1

> <PUBCHEM_CACTVS_COMPLEXITY>
166

> <PUBCHEM_CACTVS_HBOND_ACCEPTOR>
2

> <PUBCHEM_CACTVS_HBOND_DONOR>
1

> <PUBCHEM_CACTVS_ROTATABLE_BOND>
2

> <PUBCHEM_CACTVS_SUBSKEYS>
AAADceBzAAAEAAAAAAAAAAAAAAAAAAAAAAAwAAAAAAAAAAABAAAAHAAYAAAADADBGAQyAIMCAACAAiBCAACCAAAgAAAYqAAIBIgIICKAkRGEIAhggAAIiAcQgMAOwAACAAAQAACAAAQAACAAAAAAAAAAAA==

> <PUBCHEM_IUPAC_OPENEYE_NAME>
amino-[(3,4-dimethylphenyl)methyl]-dimethyl-ammonium;chloride

> <PUBCHEM_IUPAC_CAS_NAME>
amino-[(3,4-dimethylphenyl)methyl]-dimethylammonium;chloride

> <PUBCHEM_IUPAC_NAME_MARKUP>
amino-[(3,4-dimethylphenyl)methyl]-dimethylazanium;chloride

> <PUBCHEM_IUPAC_NAME>
amino-[(3,4-dimethylphenyl)methyl]-dimethylazanium;chloride

> <PUBCHEM_IUPAC_SYSTEMATIC_NAME>
azanyl-[(3,4-dimethylphenyl)methyl]-dimethyl-azanium;chloride

> <PUBCHEM_IUPAC_TRADITIONAL_NAME>
amino-(3,4-dimethylbenzyl)-dimethyl-ammonium;chloride

> <PUBCHEM_IUPAC_INCHI>
InChI=1S/C11H19N2.ClH/c1-9-5-6-11(7-10(9)2)8-13(3,4)12;/h5-7H,8,12H2,1-4H3;1H/q+1;/p-1

> <PUBCHEM_IUPAC_INCHIKEY>
BCMYLMCSMHFKBS-UHFFFAOYSA-M

> <PUBCHEM_EXACT_MASS>
214.1236763

> <PUBCHEM_MOLECULAR_FORMULA>
C11H19ClN2

> <PUBCHEM_MOLECULAR_WEIGHT>
214.73

> <PUBCHEM_OPENEYE_CAN_SMILES>
CC1=C(C=C(C=C1)C[N+](C)(C)N)C.[Cl-]

> <PUBCHEM_OPENEYE_ISO_SMILES>
CC1=C(C=C(C=C1)C[N+](C)(C)N)C.[Cl-]

> <PUBCHEM_CACTVS_TPSA>
26

> <PUBCHEM_MONOISOTOPIC_WEIGHT>
214.1236763

> <PUBCHEM_TOTAL_CHARGE>
0

> <PUBCHEM_HEAVY_ATOM_COUNT>
14

> <PUBCHEM_ATOM_DEF_STEREO_COUNT>
0

> <PUBCHEM_ATOM_UDEF_STEREO_COUNT>
0

> <PUBCHEM_BOND_DEF_STEREO_COUNT>
0

> <PUBCHEM_BOND_UDEF_STEREO_COUNT>
0

> <PUBCHEM_ISOTOPIC_ATOM_COUNT>
0

> <PUBCHEM_COMPONENT_COUNT>
2

> <PUBCHEM_CACTVS_TAUTO_COUNT>
1

> <PUBCHEM_COORDINATE_TYPE>
1
5
255

> <PUBCHEM_BONDANNOTATIONS>
10  11  8
11  12  8
5  8  8
5  9  8
8  10  8
9  12  8

$$$$